OPT_V9/start_from_1_gen/powerflow_results_t2.txt
Pandapower Network Debug Info
==================================================

BUS:
       vm_pu  va_degree      p_mw    q_mvar
0   0.993532   0.110847  0.000822  0.000864
1   0.989130   0.181734  0.001432  0.002223
2   0.985295   0.232222  0.002137  0.002616
3   0.990378   0.181438  0.002028  0.003397
4   0.988410   0.276329  0.003057  0.005640
5   0.992200   0.105485  0.003854  0.005151
6   0.990617   0.114439  0.001035  0.000983
7   0.997678   0.021007  0.001673  0.001809
8   0.997595   0.046128  0.002530  0.003244
9   0.999884   0.000516  0.010225  0.010623
10  0.999870   0.000508  0.012001  0.009066
11  0.999860   0.000504  0.012934  0.009966
12  0.999762   0.001408  0.008501  0.006687
13  0.999741   0.001428  0.014156  0.011062
14  0.999729   0.001446  0.014582  0.012019
15  0.999929   0.000417  0.000000  0.000000
16  0.999929   0.000422  0.000000  0.000000
17  0.999767   0.001407  0.000000  0.000000
18  0.999766   0.001416  0.000000  0.000000
19  1.000000   0.000000 -0.041707 -0.043838
20  1.000000   0.000006  0.000000  0.000000
21  1.000000   0.000000 -0.049547 -0.051703
22  1.000000   0.000007  0.000000  0.000000
--------------------------------------------------

LINE:
    p_from_mw  q_from_mvar   p_to_mw  q_to_mvar         pl_mw       ql_mvar  i_from_ka   i_to_ka      i_ka  vm_from_pu  va_from_degree  vm_to_pu  va_to_degree  loading_percent
0    0.041697     0.039838 -0.041694  -0.039835  3.252980e-06  2.536402e-06   0.002220  0.002220  0.002220    1.000000        0.000006  0.999929      0.000417         0.965077
1    0.049537     0.047703 -0.049524  -0.047693  1.272162e-05  9.919260e-06   0.002647  0.002647  0.002647    1.000000        0.000007  0.999767      0.001407         1.150870
2    0.035162     0.029656 -0.035160  -0.029655  1.636389e-06  1.275920e-06   0.001771  0.001771  0.001771    0.999929        0.000417  0.999884      0.000516         0.769830
3    0.008501     0.006687 -0.008501  -0.006687  4.047163e-08  3.155640e-08   0.000416  0.000416  0.000416    0.999767        0.001407  0.999762      0.001408         0.181038
4    0.028739     0.023082 -0.028738  -0.023081  7.432836e-07  5.795504e-07   0.001419  0.001419  0.001419    0.999767        0.001407  0.999741      0.001428         0.617001
5    0.006522     0.009179 -0.006463  -0.009133  5.931137e-05  4.624605e-05   0.016254  0.016254  0.016254    0.999929        0.000422  0.993532      0.110847         7.066873
6    0.004939     0.006174 -0.004891  -0.006136  4.851822e-05  3.783045e-05   0.011414  0.011414  0.011414    0.999766        0.001416  0.992200      0.105485         4.962771
7    0.001677     0.001812 -0.001673  -0.001809  4.121570e-06  3.213656e-06   0.003565  0.003565  0.003565    0.999766        0.001416  0.997678      0.021007         1.550014
8    0.005658     0.008938 -0.005639  -0.008923  1.925045e-05  1.500989e-05   0.015273  0.015273  0.015273    0.999766        0.001416  0.997595      0.046128         6.640285
9   -0.024935    -0.019032  0.024935   0.019033  3.403705e-07  2.653925e-07   0.001208  0.001208  0.001208    0.999870        0.000508  0.999884      0.000516         0.525013
10  -0.012934    -0.009966  0.012934   0.009966  1.304293e-07  1.016979e-07   0.000629  0.000629  0.000629    0.999860        0.000504  0.999870      0.000508         0.273290
11  -0.014582    -0.012019  0.014582   0.012019  1.747407e-07  1.362482e-07   0.000728  0.000728  0.000728    0.999729        0.001446  0.999741      0.001428         0.316325
12  -0.003580    -0.004846  0.003602   0.004863  2.195239e-05  1.711664e-05   0.008792  0.008792  0.008792    0.989130        0.181734  0.993532      0.110847         3.822691
13  -0.002028    -0.003397  0.002039   0.003406  1.065748e-05  8.309815e-06   0.005767  0.005767  0.005767    0.990378        0.181438  0.993532      0.110847         2.507225
14  -0.002137    -0.002616  0.002148   0.002624  1.062973e-05  8.288172e-06   0.004948  0.004948  0.004948    0.985295        0.232222  0.989130      0.181734         2.151225
15   0.003109     0.005680 -0.003057  -0.005640  5.125834e-05  3.996697e-05   0.009368  0.009368  0.009368    0.997595        0.046128  0.988410      0.276329         4.073169
16  -0.001035    -0.000983  0.001037   0.000985  1.807950e-06  1.409689e-06   0.002080  0.002080  0.002080    0.990617        0.114439  0.992200      0.105485         0.904336
--------------------------------------------------

TRAFO:
    p_hv_mw  q_hv_mvar   p_lv_mw  q_lv_mvar    pl_mw   ql_mvar   i_hv_ka   i_lv_ka  vm_hv_pu  va_hv_degree  vm_lv_pu  va_lv_degree  loading_percent
0  0.006532   0.010179 -0.006522  -0.009179  0.00001  0.001000  0.000466  0.016254  0.999929      0.000417  0.999929      0.000422         0.120953
1  0.012284   0.017924 -0.012274  -0.016924  0.00001  0.000999  0.000837  0.030184  0.999767      0.001407  0.999766      0.001416         0.217347
2  0.041707   0.043838 -0.041697  -0.039838  0.00001  0.004000  0.000499  0.002220  1.000000      0.000000  1.000000      0.000006         0.151270
3  0.049547   0.051703 -0.049537  -0.047703  0.00001  0.004000  0.000591  0.002647  1.000000      0.000000  1.000000      0.000007         0.179026
--------------------------------------------------
